Version 4
SHEET 1 880 680
WIRE -128 112 -160 112
WIRE -16 112 -48 112
WIRE 96 112 64 112
WIRE 128 112 96 112
WIRE 240 112 208 112
WIRE 272 112 240 112
WIRE 384 112 352 112
WIRE 416 112 384 112
WIRE 528 112 496 112
WIRE 560 112 528 112
WIRE 672 112 640 112
WIRE 672 128 672 112
WIRE -160 144 -160 112
WIRE 0 368 -32 368
WIRE 96 368 80 368
WIRE 160 368 96 368
WIRE 288 368 240 368
WIRE 288 384 288 368
WIRE -32 400 -32 368
WIRE 96 400 96 368
WIRE -32 496 -32 480
WIRE 96 496 96 480
WIRE -32 592 -32 576
WIRE 96 592 96 576
FLAG 672 128 0
FLAG -160 144 0
FLAG 96 112 A
FLAG 240 112 B
FLAG 384 112 C
FLAG 528 112 D
FLAG 288 384 0
FLAG 96 592 0
FLAG -32 592 0
FLAG -32 368 A1
SYMBOL res 80 96 R90
WINDOW 0 0 56 VBottom 2
WINDOW 3 32 56 VTop 2
SYMATTR InstName R1
SYMATTR Value 4.62k
SYMBOL res 224 96 R90
WINDOW 0 0 56 VBottom 2
WINDOW 3 32 56 VTop 2
SYMATTR InstName R2
SYMATTR Value 9.82k
SYMBOL res 368 96 R90
WINDOW 0 0 56 VBottom 2
WINDOW 3 32 56 VTop 2
SYMATTR InstName R3
SYMATTR Value 9.82k
SYMBOL res 512 96 R90
WINDOW 0 0 56 VBottom 2
WINDOW 3 32 56 VTop 2
SYMATTR InstName R4
SYMATTR Value 9.8k
SYMBOL res 656 96 R90
WINDOW 0 0 56 VBottom 2
WINDOW 3 32 56 VTop 2
SYMATTR InstName R5
SYMATTR Value 4.62k
SYMBOL voltage -32 112 R90
WINDOW 0 -32 56 VBottom 2
WINDOW 3 32 56 VTop 2
SYMATTR InstName V1
SYMATTR Value 5
SYMBOL res -48 384 R0
SYMATTR InstName R6
SYMATTR Value 966
SYMBOL res 80 384 R0
SYMATTR InstName R7
SYMATTR Value 969
SYMBOL res 96 352 R90
WINDOW 0 0 56 VBottom 2
WINDOW 3 32 56 VTop 2
SYMATTR InstName R8
SYMATTR Value 465
SYMBOL res 256 352 R90
WINDOW 0 0 56 VBottom 2
WINDOW 3 32 56 VTop 2
SYMATTR InstName R9
SYMATTR Value 965
SYMBOL voltage -32 480 R0
SYMATTR InstName V2
SYMATTR Value 0
SYMBOL voltage 96 480 R0
SYMATTR InstName V3
SYMATTR Value 0
TEXT -184 616 Left 2 !.op
