Version 4
SHEET 1 880 680
WIRE -272 112 -320 112
WIRE -160 112 -192 112
WIRE 0 128 -32 128
WIRE 80 128 0 128
WIRE -320 144 -320 112
WIRE -160 144 -176 144
WIRE -176 192 -176 144
WIRE -128 192 -176 192
WIRE 0 192 0 128
WIRE 0 192 -48 192
WIRE 80 224 80 208
WIRE -320 240 -320 224
FLAG -320 240 0
FLAG 80 224 0
FLAG -176 272 0
SYMBOL res -176 96 R90
WINDOW 0 0 56 VBottom 2
WINDOW 3 32 56 VTop 2
SYMATTR InstName R1
SYMATTR Value 50
SYMBOL voltage -320 128 R0
SYMATTR InstName V1
SYMATTR Value 0.1
SYMBOL res 64 112 R0
SYMATTR InstName R2
SYMATTR Value 1k
SYMBOL VCVS_Model -96 128 R0
WINDOW 39 0 -12 Bottom 2
SYMATTR SpiceLine E={mc{10E5,tol}}
SYMATTR InstName X1
SYMBOL res -192 176 R0
SYMATTR InstName R3
SYMATTR Value 1k
SYMBOL res -32 176 R90
WINDOW 0 0 56 VBottom 2
WINDOW 3 32 56 VTop 2
SYMATTR InstName R4
SYMATTR Value 2k
TEXT -352 264 Left 2 !.op
TEXT -352 288 Left 2 !.param tol 0.3
TEXT -352 312 Left 2 !.step param run 1 1k 1
