Version 4
SHEET 1 880 680
WIRE 496 32 480 32
WIRE 400 96 400 32
WIRE 400 96 352 96
WIRE 288 112 256 112
WIRE 464 128 352 128
WIRE 560 128 544 128
WIRE 96 144 64 144
WIRE 288 144 256 144
WIRE 64 160 64 144
WIRE 368 160 352 160
WIRE 384 160 368 160
WIRE 256 224 256 144
WIRE 272 224 256 224
WIRE 368 224 368 160
WIRE 368 224 352 224
FLAG 496 32 0
FLAG 560 128 0
FLAG 384 160 Vout
FLAG 256 112 0
FLAG 64 160 0
SYMBOL AutoGenerated\\amp_tlv27x_highVdd 320 128 R0
SYMATTR InstName U1
SYMBOL voltage 448 128 R270
WINDOW 0 32 56 VTop 2
WINDOW 3 -32 56 VBottom 2
SYMATTR InstName V1
SYMATTR Value -5
SYMBOL voltage 384 32 R270
WINDOW 0 32 56 VTop 2
WINDOW 3 -32 56 VBottom 2
SYMATTR InstName V2
SYMATTR Value 5
SYMBOL res 368 208 R90
WINDOW 0 0 56 VBottom 2
WINDOW 3 40 51 VTop 2
SYMATTR InstName R2
SYMATTR Value 10k
SYMBOL res 272 128 R90
WINDOW 0 0 56 VBottom 2
WINDOW 3 32 56 VTop 2
SYMATTR InstName R1
SYMATTR Value 1k
SYMBOL voltage 192 144 R90
WINDOW 0 -32 56 VBottom 2
WINDOW 3 32 56 VTop 2
WINDOW 123 0 0 Left 0
WINDOW 39 0 0 Left 0
SYMATTR InstName V3
SYMATTR Value SINE(0 1 1k)
TEXT 140 230 Left 2 !.op
TEXT 136 256 Left 2 !.tran 1m
