Version 4
SHEET 1 2004 712
WIRE -160 16 -160 0
WIRE -160 128 -160 96
WIRE 112 208 -16 208
WIRE 208 208 192 208
WIRE -160 224 -160 208
WIRE -80 224 -160 224
WIRE 16 240 -16 240
WIRE 112 240 96 240
WIRE -160 256 -160 224
WIRE -80 256 -112 256
WIRE 16 272 -16 272
WIRE 240 272 16 272
WIRE 352 272 320 272
WIRE 400 272 352 272
WIRE 496 272 480 272
WIRE -112 336 -112 256
WIRE 16 336 16 272
WIRE 16 336 -112 336
WIRE 608 336 480 336
WIRE 704 336 688 336
WIRE -160 352 -160 336
WIRE 208 368 176 368
WIRE 240 368 208 368
WIRE 352 368 352 272
WIRE 352 368 320 368
WIRE 384 368 352 368
WIRE 512 368 480 368
WIRE 608 368 592 368
WIRE 384 384 384 368
WIRE 416 384 384 384
WIRE 496 400 496 272
WIRE 496 400 480 400
FLAG 208 208 0
FLAG -160 0 0
FLAG 112 240 0
FLAG -160 352 0
FLAG 416 352 0
FLAG 704 336 0
FLAG 608 368 0
FLAG 496 400 Vout
FLAG 208 368 Vin
FLAG 96 368 0
SYMBOL voltage -160 112 R180
WINDOW 0 24 96 Left 2
WINDOW 3 24 16 Left 2
SYMATTR InstName V1
SYMATTR Value -5
SYMBOL voltage 96 208 R270
WINDOW 0 32 56 VTop 2
WINDOW 3 -32 56 VBottom 2
SYMATTR InstName V2
SYMATTR Value 5
SYMBOL voltage 0 240 R270
WINDOW 0 32 56 VTop 2
WINDOW 3 -32 56 VBottom 2
SYMATTR InstName V3
SYMATTR Value -5
SYMBOL res -176 112 R0
SYMATTR InstName R1
SYMATTR Value 1k
SYMBOL res -176 240 R0
SYMATTR InstName R2
SYMATTR Value 1k
SYMBOL AutoGenerated\\amp_tlv27x_highVdd -48 240 R0
SYMATTR InstName U1
SYMBOL res 336 256 R90
WINDOW 0 0 56 VBottom 2
WINDOW 3 32 56 VTop 2
SYMATTR InstName R3
SYMATTR Value 1k
SYMBOL res 336 352 R90
WINDOW 0 0 56 VBottom 2
WINDOW 3 32 56 VTop 2
SYMATTR InstName R4
SYMATTR Value 1k
SYMBOL res 496 256 R90
WINDOW 0 0 56 VBottom 2
WINDOW 3 32 56 VTop 2
SYMATTR InstName R5
SYMATTR Value 1k
SYMBOL AutoGenerated\\amp_tlv27x_highVdd 448 368 R0
SYMATTR InstName U2
SYMBOL voltage 592 336 R270
WINDOW 0 32 56 VTop 2
WINDOW 3 -32 56 VBottom 2
SYMATTR InstName V4
SYMATTR Value 5
SYMBOL voltage 496 368 R270
WINDOW 0 32 56 VTop 2
WINDOW 3 -32 56 VBottom 2
SYMATTR InstName V5
SYMATTR Value -5
SYMBOL voltage 192 368 R90
WINDOW 0 -32 56 VBottom 2
WINDOW 3 32 56 VTop 2
WINDOW 123 0 0 Left 0
WINDOW 39 0 0 Left 0
SYMATTR InstName V6
SYMATTR Value SINE(0 2 1k)
TEXT -184 472 Left 2 !.tran 1m
