Version 4
SHEET 1 880 680
WIRE 352 80 336 80
WIRE 112 144 64 144
WIRE 368 144 336 144
WIRE 384 144 368 144
WIRE 80 208 80 64
WIRE 80 208 16 208
WIRE 112 208 80 208
WIRE 368 208 368 144
WIRE 368 208 336 208
WIRE 400 272 336 272
WIRE 416 272 400 272
WIRE 368 320 368 208
FLAG 112 80 0
FLAG 16 208 Out
IOPIN 16 208 Out
FLAG -16 144 0
FLAG 432 80 0
FLAG 80 -96 0
FLAG 32 272 0
FLAG 544 144 0
FLAG 464 272 0
FLAG 368 384 0
SYMBOL Misc\\NE555 224 176 R0
SYMATTR InstName U1
SYMBOL voltage 80 144 R90
WINDOW 0 -32 56 VBottom 2
WINDOW 3 32 56 VTop 2
WINDOW 123 0 0 Left 0
WINDOW 39 0 0 Left 0
SYMATTR InstName V1
SYMATTR Value PULSE(0 5 0 1n 1n 8u 10u 50)
SYMBOL voltage 336 80 R270
WINDOW 0 32 56 VTop 2
WINDOW 3 -32 56 VBottom 2
SYMATTR InstName V2
SYMATTR Value 5
SYMBOL res 64 -32 R0
SYMATTR InstName R1
SYMATTR Value 1k
SYMBOL voltage 80 0 R180
WINDOW 0 24 96 Left 2
WINDOW 3 24 16 Left 2
SYMATTR InstName V3
SYMATTR Value 5
SYMBOL voltage 128 272 R90
WINDOW 0 -32 56 VBottom 2
WINDOW 3 32 56 VTop 2
SYMATTR InstName V4
SYMATTR Value 5
SYMBOL res 480 128 R90
WINDOW 0 0 56 VBottom 2
WINDOW 3 32 56 VTop 2
SYMATTR InstName R2
SYMATTR Value 5.5k
SYMBOL voltage 448 144 R270
WINDOW 0 32 56 VTop 2
WINDOW 3 -32 56 VBottom 2
SYMATTR InstName V5
SYMATTR Value 5
SYMBOL cap 400 288 R270
WINDOW 0 32 32 VTop 2
WINDOW 3 0 32 VBottom 2
SYMATTR InstName C1
SYMATTR Value 0.1µF
SYMBOL cap 352 320 R0
SYMATTR InstName C2
SYMATTR Value 0.033µF
TEXT -8 352 Left 2 !.tran 1m
