Version 4
SHEET 1 880 680
WIRE 272 128 256 128
WIRE 448 176 448 160
WIRE 448 176 400 176
WIRE 32 192 -144 192
WIRE 400 192 400 176
WIRE 400 192 256 192
WIRE 0 256 0 112
WIRE 0 256 -64 256
WIRE 32 256 0 256
WIRE 288 256 256 256
WIRE 448 256 288 256
WIRE 320 320 256 320
WIRE 336 320 320 320
WIRE -144 368 -144 192
WIRE 288 368 288 256
WIRE 288 368 -144 368
FLAG 32 128 0
FLAG -64 256 Out
IOPIN -64 256 Out
FLAG 352 128 0
FLAG 0 -48 0
FLAG -48 320 0
FLAG 384 320 0
FLAG 288 432 0
FLAG 288 368 Vcap
FLAG 448 0 0
SYMBOL Misc\\NE555 144 224 R0
SYMATTR InstName U1
SYMBOL voltage 256 128 R270
WINDOW 0 32 56 VTop 2
WINDOW 3 -32 56 VBottom 2
SYMATTR InstName V2
SYMATTR Value 5
SYMBOL res -16 16 R0
SYMATTR InstName R1
SYMATTR Value 1k
SYMBOL voltage 0 48 R180
WINDOW 0 24 96 Left 2
WINDOW 3 24 16 Left 2
SYMATTR InstName V3
SYMATTR Value 5
SYMBOL voltage 48 320 R90
WINDOW 0 -32 56 VBottom 2
WINDOW 3 32 56 VTop 2
SYMATTR InstName V4
SYMATTR Value 5
SYMBOL cap 320 336 R270
WINDOW 0 32 32 VTop 2
WINDOW 3 0 32 VBottom 2
SYMATTR InstName C1
SYMATTR Value 0.1µF
SYMBOL cap 272 368 R0
SYMATTR InstName C2
SYMATTR Value 0.01µF
SYMBOL res 432 160 R0
SYMATTR InstName R2
SYMATTR Value 4.7k
SYMBOL res 432 64 R0
SYMATTR InstName R3
SYMATTR Value 10k
SYMBOL voltage 448 96 R180
WINDOW 0 24 96 Left 2
WINDOW 3 24 16 Left 2
SYMATTR InstName V1
SYMATTR Value 5
TEXT -88 400 Left 2 !.tran 0.5m
