Version 4
SHEET 1 1220 720
WIRE 688 64 624 64
WIRE 800 64 752 64
WIRE 624 80 624 64
WIRE 96 96 32 96
WIRE 208 96 176 96
WIRE 800 96 800 64
WIRE 32 112 32 96
WIRE 208 128 208 96
WIRE 1056 352 1056 304
WIRE 1056 352 1024 352
WIRE 1120 384 1024 384
WIRE 944 400 928 400
WIRE 960 400 944 400
WIRE 1040 416 1024 416
WIRE 1056 416 1040 416
WIRE 944 480 944 400
WIRE 1040 480 1040 416
WIRE 1040 480 1024 480
WIRE 240 496 240 448
WIRE 240 496 208 496
WIRE 304 528 208 528
WIRE 128 544 112 544
WIRE 144 544 128 544
WIRE 224 560 208 560
WIRE 240 560 224 560
WIRE 128 624 128 544
WIRE 224 624 224 560
WIRE 224 624 208 624
WIRE 128 672 128 624
WIRE 224 672 224 624
WIRE 224 672 192 672
FLAG 32 192 0
FLAG 208 192 0
FLAG 208 96 Vout
FLAG 320 448 0
FLAG 384 528 0
FLAG 144 512 0
FLAG -48 544 0
FLAG 240 560 Vout
FLAG 624 160 0
FLAG 800 64 Vout
FLAG 800 176 0
FLAG 1136 304 0
FLAG 1200 384 0
FLAG 960 368 0
FLAG 704 400 0
FLAG 1056 416 Vout
SYMBOL voltage 32 96 R0
WINDOW 3 24 152 Left 2
WINDOW 123 24 124 Left 2
WINDOW 39 0 0 Left 0
SYMATTR InstName V1
SYMATTR Value ""
SYMATTR Value2 AC 1
SYMBOL res 192 80 R90
WINDOW 0 0 56 VBottom 2
WINDOW 3 32 56 VTop 2
SYMATTR InstName R1
SYMATTR Value 10k
SYMBOL cap 192 128 R0
SYMATTR InstName C1
SYMATTR Value 0.001µF
SYMBOL AutoGenerated\\amp_tlv27x_highVdd 176 528 R0
SYMATTR InstName U1
SYMBOL voltage 224 448 R270
WINDOW 0 32 56 VTop 2
WINDOW 3 -32 56 VBottom 2
SYMATTR InstName V2
SYMATTR Value 5
SYMBOL voltage 288 528 R270
WINDOW 0 32 56 VTop 2
WINDOW 3 -32 56 VBottom 2
SYMATTR InstName V3
SYMATTR Value -5
SYMBOL res 128 528 R90
WINDOW 0 0 56 VBottom 2
WINDOW 3 32 56 VTop 2
SYMATTR InstName R2
SYMATTR Value 1k
SYMBOL res 224 608 R90
WINDOW 0 0 56 VBottom 2
WINDOW 3 32 56 VTop 2
SYMATTR InstName R3
SYMATTR Value 1k
SYMBOL cap 192 656 R90
WINDOW 0 0 32 VBottom 2
WINDOW 3 32 32 VTop 2
SYMATTR InstName C2
SYMATTR Value 0.1µ
SYMBOL voltage 48 544 R90
WINDOW 0 -32 56 VBottom 2
WINDOW 3 32 56 VTop 2
WINDOW 123 60 56 VTop 2
WINDOW 39 0 0 Left 0
SYMATTR InstName V4
SYMATTR Value ""
SYMATTR Value2 AC 1
SYMBOL voltage 624 64 R0
WINDOW 3 24 152 Left 2
WINDOW 123 24 124 Left 2
WINDOW 39 0 0 Left 0
SYMATTR InstName V5
SYMATTR Value ""
SYMATTR Value2 AC 1
SYMBOL res 816 192 R180
WINDOW 0 36 76 Left 2
WINDOW 3 36 40 Left 2
SYMATTR InstName R4
SYMATTR Value 15k
SYMBOL cap 688 80 R270
WINDOW 0 32 32 VTop 2
WINDOW 3 0 32 VBottom 2
SYMATTR InstName C3
SYMATTR Value 0.01µF
SYMBOL AutoGenerated\\amp_tlv27x_highVdd 992 384 R0
SYMATTR InstName U2
SYMBOL voltage 1040 304 R270
WINDOW 0 32 56 VTop 2
WINDOW 3 -32 56 VBottom 2
SYMATTR InstName V6
SYMATTR Value 5
SYMBOL voltage 1104 384 R270
WINDOW 0 32 56 VTop 2
WINDOW 3 -32 56 VBottom 2
SYMATTR InstName V7
SYMATTR Value -5
SYMBOL res 944 384 R90
WINDOW 0 0 56 VBottom 2
WINDOW 3 32 56 VTop 2
SYMATTR InstName R5
SYMATTR Value 3.3k
SYMBOL res 1040 464 R90
WINDOW 0 0 56 VBottom 2
WINDOW 3 32 56 VTop 2
SYMATTR InstName R6
SYMATTR Value 33k
SYMBOL cap 848 384 R90
WINDOW 0 0 32 VBottom 2
WINDOW 3 32 32 VTop 2
SYMATTR InstName C4
SYMATTR Value 0.1µ
SYMBOL voltage 800 400 R90
WINDOW 0 -32 56 VBottom 2
WINDOW 3 32 56 VTop 2
WINDOW 123 60 56 VTop 2
WINDOW 39 0 0 Left 0
SYMATTR InstName V8
SYMATTR Value ""
SYMATTR Value2 AC 1
TEXT 712 504 Left 2 !.ac dec 100 1 1Meg
TEXT -80 80 Left 2 ;2)
TEXT 552 64 Left 2 ;3)
TEXT -56 448 Left 2 ;4)
TEXT 760 304 Left 2 ;5)
